*Heading
** Job name: SquarePlateWithHole3D Model name: Model-1
** Generated by: Abaqus/CAE 6.13-1
*Preprint, echo=NO, model=NO, history=NO, contact=NO
**
** PARTS
**
*Part, name=Part-1
*Node
      1,  0.100000001,  0.100000001, 0.00999999978
      2,  0.100000001,  0.100000001, 0.0199999996
      3,  0.100000001, 0.0500000007, 0.0199999996
      4,  0.100000001, 0.0500000007, 0.00999999978
      5, 0.0450000018,  0.100000001, 0.00999999978
      6, 0.0450000018,  0.100000001, 0.0199999996
      7, 0.0400482006, 0.0411955044, 0.0199999996
      8, 0.0395822115, 0.0406606309, 0.00999999885
      9,  0.100000001,           0., 0.0199999996
     10,  0.100000001,           0., 0.00999999978
     11, 0.0541666672,           0., 0.0199999996
     12, 0.0541666672,           0., 0.00999999978
     13,  0.100000001,           0.,           0.
     14,  0.100000001, 0.0500000007,           0.
     15, 0.0541666672,           0.,           0.
     16, 0.0399356894, 0.0408881344,           0.
     17,  0.100000001,  0.100000001,           0.
     18, 0.0450000018,  0.100000001,           0.
     19,           0.,  0.100000001, 0.0199999996
     20,           0., 0.0549999997, 0.0199999996
** ... 1665 like lines cut
*Element, type=DC3D8
   1,   80,  538, 1238,  378,    1,   34,  362,   51
   2,  538,  100,  458, 1238,   34,    2,   35,  362
   3,  378, 1238, 1239,  379,   51,  362,  363,   50
   4, 1238,  458,  459, 1239,  362,   35,   36,  363
   5,  379, 1239, 1240,  380,   50,  363,  364,   49
   6, 1239,  459,  460, 1240,  363,   36,   37,  364
   7,  380, 1240, 1241,  381,   49,  364,  365,   48
   8, 1240,  460,  461, 1241,  364,   37,   38,  365
   9,  381, 1241, 1242,  382,   48,  365,  366,   47
  10, 1241,  461,  462, 1242,  365,   38,   39,  366
  11,  382, 1242, 1243,  383,   47,  366,  367,   46
  12, 1242,  462,  463, 1243,  366,   39,   40,  367
  13,  383, 1243, 1244,  384,   46,  367,  368,   45
  14, 1243,  463,  464, 1244,  367,   40,   41,  368
  15,  384, 1244, 1245,  385,   45,  368,  369,   44
  16, 1244,  464,  465, 1245,  368,   41,   42,  369
  17,  385, 1245,  548,   79,   44,  369,   43,    4
  18, 1245,  465,   99,  548,  369,   42,    3,   43
  19,   81,  539, 1246,  386,   80,  538, 1238,  378
  20,  539,  101,  466, 1246,  538,  100,  458, 1238
** ... 1168 like lines cut
*Nset, nset=Set-1, generate
    1,  1685,     1
*Elset, elset=Set-1, generate
    1,  1188,     1
** Section: Section-1
*Solid Section, elset=Set-1, material=Material-1
,
*End Part
**  
**
** ASSEMBLY
**
*Assembly, name=Assembly
**  
*Instance, name=Part-1-1, part=Part-1
*End Instance
**  
*Nset, nset=Set-1, instance=Part-1-1
   23,   24,   25,   26,   27,   28,   31,   32,   33,  282,  283,  284,  285,  286,  287,  288
  289,  290,  291,  292,  293,  294,  295,  296,  297,  298,  299,  300,  301,  302,  303,  304
  305,  306,  307,  308,  309,  310,  311,  312,  313,  314,  315,  316,  343,  344,  345,  346
  347,  348,  349,  350,  351,  352,  353,  354,  355,  356,  357,  358,  359,  360,  361, 1118
 1119, 1120, 1121, 1122, 1123, 1124, 1125, 1126, 1127, 1128, 1129, 1130, 1131, 1132, 1133, 1222
 1223, 1224, 1225, 1226, 1227, 1228, 1229, 1230, 1231, 1232, 1233, 1234, 1235, 1236, 1237
*Elset, elset=Set-1, instance=Part-1-1
  955,  956,  957,  958,  959,  960,  961,  962,  963,  964,  965,  966,  967,  968,  969,  970
  971,  972,  973,  974,  975,  976,  977,  978,  979,  980,  981,  982,  983,  984,  985,  986
  987,  988,  989,  990, 1153, 1154, 1155, 1156, 1157, 1158, 1159, 1160, 1161, 1162, 1163, 1164
 1165, 1166, 1167, 1168, 1169, 1170, 1171, 1172, 1173, 1174, 1175, 1176, 1177, 1178, 1179, 1180
 1181, 1182, 1183, 1184, 1185, 1186, 1187, 1188
*Elset, elset=_Surf-1_S4, internal, instance=Part-1-1, generate
   2,  198,    2
*Elset, elset=_Surf-1_S3, internal, instance=Part-1-1
 199, 200, 201, 202, 203, 204, 205, 206, 207, 217, 218, 219, 220, 221, 222, 223
 224, 225, 235, 236, 237, 238, 239, 240, 241, 242, 243, 253, 254, 255, 256, 257
 258, 259, 260, 261, 271, 272, 273, 274, 275, 276, 277, 278, 279, 289, 290, 291
 292, 293, 294, 295, 296, 297, 307, 308, 309, 310, 311, 312, 313, 314, 315, 325
 326, 327, 328, 329, 330, 331, 332, 333, 343, 344, 345, 346, 347, 348, 349, 350
 351, 361, 362, 363, 364, 365, 366, 367, 368, 369, 379, 380, 381, 382, 383, 384
 385, 386, 387
*Elset, elset=_Surf-1_S2, internal, instance=Part-1-1
 793, 794, 795, 796, 797, 798, 799, 800, 801, 802, 803, 804, 805, 806, 807, 808
 809, 810, 811, 812, 813, 814, 815, 816, 817, 818, 819, 820, 821, 822, 823, 824
 825, 826, 827, 828, 829, 830, 831, 832, 833, 834, 835, 836, 837, 838, 839, 840
 841, 842, 843, 844, 845, 846, 847, 848, 849, 850, 851, 852, 853, 854, 855, 856
 857, 858, 859, 860, 861, 862, 863, 864, 865, 866, 867, 868, 869, 870, 871, 872
 873, 955, 956, 957, 958, 959, 960, 961, 962, 963, 973, 974, 975, 976, 977, 978
 979, 980, 981
*Surface, type=ELEMENT, name=Surf-1
_Surf-1_S4, S4
_Surf-1_S3, S3
_Surf-1_S2, S2
*End Assembly
** 
** MATERIALS
** 
*Material, name=Material-1
*Conductivity
15.,
*Density
7800.,
*Specific Heat
125.,
** 
** PHYSICAL CONSTANTS
** 
*Physical Constants, absolute zero=-273.15, stefan boltzmann=5.669e-08
** 
** PREDEFINED FIELDS
** 
** Name: Predefined Field-1   Type: Temperature
*Initial Conditions, type=TEMPERATURE
Part-1-1.Set-1, 50.
** ----------------------------------------------------------------
** 
** STEP: Step-1
** 
*Step, name=Step-1, nlgeom=NO, inc=1000
*Heat Transfer, end=PERIOD
0.1, 50., , ,
** 
** BOUNDARY CONDITIONS
** 
** Name: BC-1 Type: Temperature
*Boundary
Set-1, 11, 11, 200.
** 
** INTERACTIONS
** 
** Interaction: Int-1
*Sfilm
Surf-1, F, 100., 200.
** 
** OUTPUT REQUESTS
** 
*Restart, write, frequency=0
** 
** FIELD OUTPUT: F-Output-1
** 
*ELEMENT OPERATOR OUTPUT, ASSEMBLE, STIFFNESS
*End Step
